ZRY:404
     RDKit          3D

 32 34  0  0  0  0  0  0  0  0999 V2000
   29.2767    3.6301   58.9241 N   0  0  0  0  0  0  0  0  0  0  0  0
   25.9781    4.7013   58.3308 C   0  0  0  0  0  0  0  0  0  0  0  0
   24.6045    7.1753   56.2555 C   0  0  0  0  0  0  0  0  0  0  0  0
   25.0889    5.4243   57.7946 N   0  0  0  0  0  0  0  0  0  0  0  0
   25.0719    8.1334   55.3649 C   0  0  0  0  0  0  0  0  0  0  0  0
   26.9805    3.1623   59.7232 C   0  0  0  0  0  0  0  0  0  0  0  0
   24.5731    3.1795   59.9277 C   0  0  0  0  0  0  0  0  0  0  0  0
   25.7444    3.6771   59.3574 C   0  0  0  0  0  0  0  0  0  0  0  0
   25.5171    6.3049   56.8800 N   0  0  0  0  0  0  0  0  0  0  0  0
   24.6730    2.1651   60.8749 C   0  0  0  0  0  0  0  0  0  0  0  0
   25.9145    1.6610   61.2540 C   0  0  0  0  0  0  0  0  0  0  0  0
   27.0770    2.1544   60.6862 C   0  0  0  0  0  0  0  0  0  0  0  0
   27.3731    4.7157   58.1030 N   0  0  0  0  0  0  0  0  0  0  0  0
   27.9754    3.8371   58.9109 C   0  0  0  0  0  0  0  0  0  0  0  0
   24.1915    9.0178   54.7641 C   0  0  0  0  0  0  0  0  0  0  0  0
   22.8420    8.9339   55.0182 C   0  0  0  0  0  0  0  0  0  0  0  0
   22.3645    7.9568   55.8621 C   0  0  0  0  0  0  0  0  0  0  0  0
   23.2394    7.0894   56.5007 C   0  0  0  0  0  0  0  0  0  0  0  0
   29.8636    4.1479   58.3267 H   0  0  0  0  0  0  0  0  0  0  0  0
   29.6621    2.9578   59.5313 H   0  0  0  0  0  0  0  0  0  0  0  0
   24.1376    5.3445   58.0354 H   0  0  0  0  0  0  0  0  0  0  0  0
   26.0799    8.1865   55.1499 H   0  0  0  0  0  0  0  0  0  0  0  0
   23.6521    3.5556   59.6532 H   0  0  0  0  0  0  0  0  0  0  0  0
   26.4722    6.3431   56.6443 H   0  0  0  0  0  0  0  0  0  0  0  0
   23.8156    1.7812   61.3021 H   0  0  0  0  0  0  0  0  0  0  0  0
   25.9686    0.9138   61.9638 H   0  0  0  0  0  0  0  0  0  0  0  0
   27.9979    1.7844   60.9690 H   0  0  0  0  0  0  0  0  0  0  0  0
   27.8329    5.2878   57.4468 H   0  0  0  0  0  0  0  0  0  0  0  0
   24.5494    9.7430   54.1229 H   0  0  0  0  0  0  0  0  0  0  0  0
   22.1898    9.6013   54.5775 H   0  0  0  0  0  0  0  0  0  0  0  0
   21.3486    7.8688   56.0211 H   0  0  0  0  0  0  0  0  0  0  0  0
   22.8764    6.3809   57.1574 H   0  0  0  0  0  0  0  0  0  0  0  0
  1 14  2  0
  1 19  1  0
  1 20  1  0
  2  8  1  0
  2 13  1  0
  2  4  2  0
  3  9  1  0
  3  5  2  0
  3 18  1  0
  4  9  1  0
  4 21  1  0
  5 15  1  0
  5 22  1  0
  6 14  1  0
  6 12  1  0
  6  8  2  0
  7 10  2  0
  7  8  1  0
  7 23  1  0
  9 24  1  0
 10 11  1  0
 10 25  1  0
 11 12  2  0
 11 26  1  0
 12 27  1  0
 13 14  1  0
 13 28  1  0
 15 16  2  0
 15 29  1  0
 16 17  1  0
 16 30  1  0
 17 18  2  0
 17 31  1  0
 18 32  1  0
M  CHG  2   1   1   4   1
M  END
$$$$
